OPT_V8/My_Campus_24/powerflow_results_t17.txt
Pandapower Network Debug Info
==================================================

BUS:
       vm_pu  va_degree      p_mw    q_mvar
0   0.992745   0.098141  0.000828  0.000811
1   0.987916   0.165190  0.001710  0.001723
2   0.983331   0.247862  0.002348  0.003380
3   0.988925   0.156962  0.002786  0.003682
4   0.988415   0.290892  0.003038  0.005723
5   0.991997   0.109168  0.003683  0.005181
6   0.990056   0.113936  0.001327  0.001129
7   0.997818   0.016574  0.001602  0.001639
8   0.997658   0.053751  0.001954  0.003464
9   0.999886   0.000745  0.008346  0.008771
10  0.999872   0.000795  0.012586  0.009631
11  0.999862   0.000871  0.011534  0.011700
12  0.999763   0.001412  0.010504  0.006155
13  0.999734   0.001562  0.011363  0.010150
14  0.999743   0.001525  0.015464  0.013101
15  0.999929   0.000533  0.000000  0.000000
16  0.999929   0.000539  0.000000  0.000000
17  0.999768   0.001452  0.000000  0.000000
18  0.999768   0.001463  0.000000  0.000000
19  1.000000   0.000000 -0.040292 -0.044803
20  1.000000   0.000006  0.000000  0.000000
21  1.000000   0.000000 -0.049099 -0.051651
22  1.000000   0.000007  0.000000  0.000000
--------------------------------------------------

LINE:
    p_from_mw  q_from_mvar   p_to_mw  q_to_mvar         pl_mw       ql_mvar  i_from_ka   i_to_ka      i_ka  vm_from_pu  va_from_degree  vm_to_pu  va_to_degree  loading_percent
0    0.040282     0.040803 -0.040278  -0.040801  3.215637e-06  2.507285e-06   0.002207  0.002207  0.002207    1.000000        0.000006  0.999929      0.000533         0.959522
1    0.049089     0.047651 -0.049076  -0.047641  1.258930e-05  9.816083e-06   0.002633  0.002633  0.002633    1.000000        0.000007  0.999768      0.001452         1.144869
2    0.032468     0.030104 -0.032467  -0.030102  1.516163e-06  1.182177e-06   0.001704  0.001704  0.001704    0.999929        0.000533  0.999886      0.000745         0.741010
3    0.010504     0.006155 -0.010504  -0.006155  5.128040e-08  3.998417e-08   0.000469  0.000469  0.000469    0.999768        0.001452  0.999763      0.001412         0.203784
4    0.026828     0.023251 -0.026827  -0.023251  6.894756e-07  5.375955e-07   0.001367  0.001367  0.001367    0.999768        0.001452  0.999743      0.001525         0.594249
5    0.007800     0.009697 -0.007728  -0.009641  7.245283e-05  5.649267e-05   0.017964  0.017964  0.017964    0.999929        0.000539  0.992745      0.098141         7.810629
6    0.005064     0.006351 -0.005013  -0.006312  5.121500e-05  3.993318e-05   0.011727  0.011727  0.011727    0.999768        0.001463  0.991997      0.109168         5.098828
7    0.001606     0.001641 -0.001602  -0.001639  3.563434e-06  2.778468e-06   0.003315  0.003315  0.003315    0.999768        0.001463  0.997818      0.016574         1.441248
8    0.005064     0.009243 -0.005045  -0.009228  1.910717e-05  1.489817e-05   0.015216  0.015216  0.015216    0.999768        0.001463  0.997658      0.053751         6.615526
9   -0.024120    -0.021331  0.024120   0.021331  3.586359e-07  2.796343e-07   0.001240  0.001240  0.001240    0.999872        0.000795  0.999886      0.000745         0.538915
10  -0.011534    -0.011700  0.011534   0.011700  1.320407e-07  1.029543e-07   0.000632  0.000632  0.000632    0.999862        0.000871  0.999872      0.000795         0.274973
11   0.011364     0.010150 -0.011363  -0.010150  1.135941e-07  8.857118e-08   0.000587  0.000587  0.000587    0.999743        0.001525  0.999734      0.001562         0.255043
12  -0.004073    -0.005116  0.004099   0.005136  2.592456e-05  2.021381e-05   0.009555  0.009555  0.009555    0.987916        0.165190  0.992745      0.098141         4.154168
13  -0.002786    -0.003682  0.002801   0.003693  1.455529e-05  1.134900e-05   0.006739  0.006739  0.006739    0.988925        0.156962  0.992745      0.098141         2.930058
14  -0.002348    -0.003380  0.002364   0.003393  1.584818e-05  1.235709e-05   0.006041  0.006041  0.006041    0.983331        0.247862  0.987916      0.165190         2.626724
15   0.003091     0.005764 -0.003038  -0.005723  5.229477e-05  4.077509e-05   0.009463  0.009463  0.009463    0.997658        0.053751  0.988415      0.290892         4.114142
16  -0.001327    -0.001129  0.001330   0.001131  2.695117e-06  2.101427e-06   0.002540  0.002540  0.002540    0.990056        0.113936  0.991997      0.109168         1.104144
--------------------------------------------------

TRAFO:
    p_hv_mw  q_hv_mvar   p_lv_mw  q_lv_mvar    pl_mw   ql_mvar   i_hv_ka   i_lv_ka  vm_hv_pu  va_hv_degree  vm_lv_pu  va_lv_degree  loading_percent
0  0.007810   0.010697 -0.007800  -0.009697  0.00001  0.001000  0.000510  0.017964  0.999929      0.000533  0.999929      0.000539         0.132460
1  0.011744   0.018235 -0.011734  -0.017236  0.00001  0.000999  0.000835  0.030102  0.999768      0.001452  0.999768      0.001463         0.216945
2  0.040292   0.044803 -0.040282  -0.040803  0.00001  0.004000  0.000497  0.002207  1.000000      0.000000  1.000000      0.000006         0.150639
3  0.049099   0.051651 -0.049089  -0.047651  0.00001  0.004000  0.000588  0.002633  1.000000      0.000000  1.000000      0.000007         0.178158
--------------------------------------------------
